Version 4
SHEET 1 3144 752
WIRE 1328 -720 1248 -720
WIRE 1520 -720 1440 -720
WIRE 1328 -624 1248 -624
WIRE 1520 -624 1440 -624
WIRE 752 -544 704 -544
WIRE 976 -544 944 -544
WIRE 1328 -528 1248 -528
WIRE 1520 -528 1440 -528
WIRE 752 -512 704 -512
WIRE 976 -512 944 -512
WIRE -224 -496 -272 -496
WIRE 752 -480 704 -480
WIRE 976 -480 944 -480
WIRE -224 -464 -528 -464
WIRE 976 -448 944 -448
WIRE -528 -432 -528 -464
WIRE -256 -432 -256 -528
WIRE -224 -432 -256 -432
WIRE 1328 -432 1248 -432
WIRE 1520 -432 1440 -432
WIRE 976 -416 944 -416
WIRE -256 -400 -256 -432
WIRE -224 -400 -256 -400
WIRE 752 -384 704 -384
WIRE 976 -384 944 -384
WIRE 752 -352 704 -352
WIRE 976 -352 944 -352
WIRE 1328 -336 1248 -336
WIRE 1520 -336 1440 -336
WIRE 752 -320 704 -320
WIRE 976 -320 944 -320
WIRE -528 -304 -528 -352
WIRE -272 -272 -272 -496
WIRE -224 -272 -272 -272
WIRE 48 -272 0 -272
WIRE -272 -240 -272 -272
WIRE -224 -240 -272 -240
WIRE 48 -240 0 -240
WIRE 1328 -240 1248 -240
WIRE 1520 -240 1440 -240
WIRE -272 -208 -272 -240
WIRE -224 -208 -272 -208
WIRE 48 -208 0 -208
WIRE 752 -192 704 -192
WIRE 976 -192 944 -192
WIRE -272 -176 -272 -208
WIRE -224 -176 -272 -176
WIRE 48 -176 0 -176
WIRE 752 -160 704 -160
WIRE 976 -160 944 -160
WIRE 1328 -144 1248 -144
WIRE 1520 -144 1440 -144
WIRE 752 -128 704 -128
WIRE 976 -128 944 -128
WIRE -272 -112 -272 -176
WIRE 976 -96 944 -96
WIRE 976 -64 944 -64
WIRE 1328 -48 1248 -48
WIRE 1520 -48 1440 -48
WIRE 752 -32 704 -32
WIRE 976 -32 944 -32
WIRE 752 0 704 0
WIRE 976 0 944 0
WIRE 752 32 704 32
WIRE 976 32 944 32
WIRE 1328 48 1248 48
WIRE 1520 48 1440 48
WIRE 1328 144 1248 144
WIRE 1520 144 1440 144
WIRE 1328 240 1248 240
WIRE 1520 240 1440 240
WIRE -384 272 -384 224
WIRE 1328 336 1248 336
WIRE 1520 336 1440 336
WIRE -384 384 -384 352
FLAG -272 -112 0
FLAG -384 384 0
FLAG -384 224 vcc
FLAG -256 -528 vcc
FLAG -528 -304 0
FLAG 704 -544 an0
FLAG 704 -512 an1
FLAG 704 -480 an2
FLAG 704 -320 vcc
FLAG 976 -544 EN0#
FLAG 976 -512 EN1#
FLAG 976 -480 EN2#
FLAG 976 -448 EN3#
FLAG 976 -416 EN4#
FLAG 976 -384 EN5#
FLAG 976 -352 EN6#
FLAG 976 -320 EN7#
FLAG 704 -384 0
FLAG 48 -176 an4
FLAG 704 -192 an0
FLAG 704 -160 an1
FLAG 704 -128 an2
FLAG 976 -192 EN8#
FLAG 976 -160 EN9#
FLAG 976 -128 EN10#
FLAG 976 -96 EN11#
FLAG 976 -64 EN12#
FLAG 976 -32 EN13#
FLAG 976 0 EN14#
FLAG 976 32 EN15#
FLAG 704 -32 0
FLAG 1248 -720 EN1#
FLAG 1248 -624 EN2#
FLAG 1248 -528 EN3#
FLAG 1248 -432 EN4#
FLAG 1248 -336 EN5#
FLAG 1248 -240 EN6#
FLAG 1248 -144 EN7#
FLAG 1248 -48 EN8#
FLAG 1248 48 EN9#
FLAG 1248 144 EN10#
FLAG 1248 240 EN11#
FLAG 1248 336 EN12#
FLAG 1520 -720 EN1
FLAG 1520 -624 EN2
FLAG 1520 -528 EN3
FLAG 1520 -432 EN4
FLAG 1520 -336 EN5
FLAG 1520 -240 EN6
FLAG 1520 -144 EN7
FLAG 1520 -48 EN8
FLAG 1520 48 EN9
FLAG 1520 144 EN10
FLAG 1520 240 EN11
FLAG 1520 336 EN12
FLAG 704 0 0
FLAG 704 32 an4
FLAG 48 -272 an0
FLAG 48 -240 an1
FLAG 48 -208 an2
FLAG 704 -352 an4
SYMBOL ZZZ\\LOGIC\\hc&u\\74HC193_5v\\74hc193 -112 -592 R0
WINDOW 3 -48 480 Left 2
WINDOW 0 -48 508 Left 2
SYMATTR InstName U1
SYMBOL voltage -384 256 R0
WINDOW 123 0 0 Left 0
WINDOW 39 0 0 Left 0
SYMATTR InstName V1
SYMATTR Value 5
SYMBOL voltage -528 -448 M0
WINDOW 123 0 0 Left 0
WINDOW 39 0 0 Left 0
SYMATTR InstName V2
SYMATTR Value PULSE(0 5 10u 1n 1n 10u 20u)
SYMBOL ZZZ\\LOGIC\\74HC\\74hc138 848 -608 R0
SYMATTR InstName U4
SYMBOL ZZZ\\LOGIC\\74HC\\74hc138 848 -256 R0
SYMATTR InstName U2
SYMBOL ZZZ\\LOGIC\\74HC\\74hc04 1376 -784 R0
SYMATTR InstName U3
SYMBOL ZZZ\\LOGIC\\74HC\\74hc04 1376 -688 R0
SYMATTR InstName U5
SYMBOL ZZZ\\LOGIC\\74HC\\74hc04 1376 -592 R0
SYMATTR InstName U6
SYMBOL ZZZ\\LOGIC\\74HC\\74hc04 1376 -496 R0
SYMATTR InstName U7
SYMBOL ZZZ\\LOGIC\\74HC\\74hc04 1376 -400 R0
SYMATTR InstName U8
SYMBOL ZZZ\\LOGIC\\74HC\\74hc04 1376 -304 R0
SYMATTR InstName U9
SYMBOL ZZZ\\LOGIC\\74HC\\74hc04 1376 -208 R0
SYMATTR InstName U10
SYMBOL ZZZ\\LOGIC\\74HC\\74hc04 1376 -112 R0
SYMATTR InstName U11
SYMBOL ZZZ\\LOGIC\\74HC\\74hc04 1376 -16 R0
SYMATTR InstName U12
SYMBOL ZZZ\\LOGIC\\74HC\\74hc04 1376 80 R0
SYMATTR InstName U13
SYMBOL ZZZ\\LOGIC\\74HC\\74hc04 1376 176 R0
SYMATTR InstName U14
SYMBOL ZZZ\\LOGIC\\74HC\\74hc04 1376 272 R0
SYMATTR InstName U15
TEXT -416 456 Left 2 !.tran 310u
TEXT -296 736 Left 2 !.param tdgate=10n tdgate2=3*tdgate tripdtgate=1n vhighgate=5v vlowgate=0v
