Version 4
SHEET 1 3144 752
WIRE -128 -720 -224 -720
WIRE 2832 -592 2768 -592
WIRE 2832 -560 2768 -560
WIRE 2832 -496 2768 -496
WIRE 3088 -496 3024 -496
WIRE 2832 -464 2768 -464
WIRE 3088 -464 3024 -464
WIRE 2832 -432 2768 -432
WIRE 3088 -432 3024 -432
WIRE 2832 -400 2768 -400
WIRE 3088 -400 3024 -400
WIRE 2832 -368 2768 -368
WIRE 3088 -368 3024 -368
WIRE 2832 -336 2768 -336
WIRE 3088 -336 3024 -336
WIRE -432 -320 -560 -320
WIRE -400 -320 -432 -320
WIRE 2832 -304 2768 -304
WIRE 3088 -304 3024 -304
WIRE -560 -288 -560 -320
WIRE 2832 -272 2768 -272
WIRE 3088 -272 3024 -272
WIRE -560 -160 -560 -208
WIRE 2832 -160 2768 -160
WIRE 2832 -128 2768 -128
WIRE 2832 -64 2768 -64
WIRE 3088 -64 3024 -64
WIRE 2832 -32 2768 -32
WIRE 3088 -32 3024 -32
WIRE 2832 0 2768 0
WIRE 3088 0 3024 0
WIRE 1488 32 1440 32
WIRE 2832 32 2768 32
WIRE 3088 32 3024 32
WIRE 128 48 80 48
WIRE 688 48 640 48
WIRE 912 48 880 48
WIRE 2048 48 2000 48
WIRE 2272 48 2240 48
WIRE 2832 64 2768 64
WIRE 3088 64 3024 64
WIRE -128 80 -128 -720
WIRE 128 80 -128 80
WIRE 688 80 640 80
WIRE 912 80 880 80
WIRE 2048 80 2000 80
WIRE 2272 80 2240 80
WIRE 1456 96 1456 0
WIRE 1488 96 1456 96
WIRE 2832 96 2768 96
WIRE 3088 96 3024 96
WIRE 96 112 96 16
WIRE 128 112 96 112
WIRE 688 112 640 112
WIRE 912 112 880 112
WIRE 2048 112 2000 112
WIRE 2272 112 2240 112
WIRE 1456 128 1456 96
WIRE 1488 128 1456 128
WIRE 2832 128 2768 128
WIRE 3088 128 3024 128
WIRE 96 144 96 112
WIRE 128 144 96 144
WIRE 912 144 880 144
WIRE 2272 144 2240 144
WIRE 2832 160 2768 160
WIRE 3088 160 3024 160
WIRE 912 176 880 176
WIRE 2272 176 2240 176
WIRE 688 208 656 208
WIRE 912 208 880 208
WIRE 2048 208 2016 208
WIRE 2272 208 2240 208
WIRE 656 240 656 208
WIRE 688 240 656 240
WIRE 912 240 880 240
WIRE 2016 240 2016 208
WIRE 2048 240 2016 240
WIRE 2272 240 2240 240
WIRE 1440 256 1440 32
WIRE 1488 256 1440 256
WIRE 1760 256 1712 256
WIRE -384 272 -384 224
WIRE 80 272 80 48
WIRE 128 272 80 272
WIRE 400 272 352 272
WIRE 688 272 624 272
WIRE 912 272 880 272
WIRE 2048 272 1984 272
WIRE 2272 272 2240 272
WIRE 656 288 656 240
WIRE 1440 288 1440 256
WIRE 1488 288 1440 288
WIRE 1760 288 1712 288
WIRE 2016 288 2016 240
WIRE 80 304 80 272
WIRE 128 304 80 304
WIRE 400 304 352 304
WIRE 1440 320 1440 288
WIRE 1488 320 1440 320
WIRE 1760 320 1712 320
WIRE 80 336 80 304
WIRE 128 336 80 336
WIRE 400 336 352 336
WIRE 1440 352 1440 320
WIRE 1488 352 1440 352
WIRE 1760 352 1712 352
WIRE 80 368 80 336
WIRE 128 368 80 368
WIRE 400 368 352 368
WIRE -384 384 -384 352
WIRE 1440 416 1440 352
WIRE 80 432 80 368
FLAG 80 432 0
FLAG -384 384 0
FLAG -384 224 vcc
FLAG 96 16 vcc
FLAG -560 -160 0
FLAG 1440 416 0
FLAG 1456 0 vcc
FLAG 1760 256 r0
FLAG 1760 288 r1
FLAG 1760 320 r2
FLAG 2000 48 r0
FLAG 2000 80 r1
FLAG 2000 112 r2
FLAG 2016 288 0
FLAG 1984 272 vcc
FLAG 400 272 w0
FLAG 400 304 w1
FLAG 400 336 w2
FLAG 640 48 w0
FLAG 640 80 w1
FLAG 640 112 w2
FLAG 656 288 0
FLAG 624 272 vcc
FLAG 2272 48 rn0#
FLAG 2272 80 rn1#
FLAG 2272 112 rn2#
FLAG 2272 144 rn3#
FLAG 2272 176 rn4#
FLAG 2272 208 rn5#
FLAG 2272 240 rn6#
FLAG 2272 272 rn7#
FLAG 2768 -592 rn0#
FLAG 2768 -496 d0
FLAG 2768 -464 d1
FLAG 2768 -432 d2
FLAG 2768 -400 d3
FLAG 2768 -368 d4
FLAG 2768 -336 d5
FLAG 2768 -304 d6
FLAG 2768 -272 d7
FLAG 3088 -496 rd0
FLAG 3088 -464 rd1
FLAG 3088 -432 rd2
FLAG 3088 -400 rd3
FLAG 3088 -368 rd4
FLAG 3088 -336 rd5
FLAG 3088 -304 rd6
FLAG 3088 -272 rd7
FLAG 2768 -64 d0
FLAG 2768 -32 d1
FLAG 2768 0 d2
FLAG 2768 32 d3
FLAG 2768 64 d4
FLAG 2768 96 d5
FLAG 2768 128 d6
FLAG 2768 160 d7
FLAG 3088 -64 rd0
FLAG 3088 -32 rd1
FLAG 3088 0 rd2
FLAG 3088 32 rd3
FLAG 3088 64 rd4
FLAG 3088 96 rd5
FLAG 3088 128 rd6
FLAG 3088 160 rd7
FLAG -224 -720 LOAD#
IOPIN -224 -720 In
FLAG -432 -320 LOAD#
FLAG 912 48 wn0#
FLAG 912 80 wn1#
FLAG 912 112 wn2#
FLAG 912 144 wn3#
FLAG 912 176 wn4#
FLAG 912 208 wn5#
FLAG 912 240 wn6#
FLAG 912 272 wn7#
FLAG 2768 -560 wn0#
FLAG 2768 -160 rn1#
FLAG 2768 -128 wn1#
SYMBOL ZZZ\\LOGIC\\hc&u\\74HC193_5v\\74hc193 240 -48 R0
WINDOW 3 -48 480 Left 2
WINDOW 0 -48 508 Left 2
SYMATTR InstName U1
SYMBOL voltage -384 256 R0
WINDOW 123 0 0 Left 0
WINDOW 39 0 0 Left 0
SYMATTR InstName V1
SYMATTR Value 5
SYMBOL voltage -560 -304 R0
WINDOW 123 0 0 Left 0
WINDOW 39 0 0 Left 0
SYMATTR InstName V2
SYMATTR Value PULSE(0 5 10u 1n 1n 10u 20u)
SYMBOL ZZZ\\LOGIC\\hc&u\\74HC193_5v\\74hc193 1600 -64 R0
WINDOW 3 -68 480 Left 2
WINDOW 0 -48 508 Left 2
SYMATTR InstName U2
SYMBOL ZZZ\\LOGIC\\74HC\\74hc138 2144 -16 R0
SYMATTR InstName U3
SYMBOL ZZZ\\LOGIC\\74HC\\74hc138 784 -16 R0
SYMATTR InstName U4
SYMBOL ZZZ\\LOGIC\\74HC\\74hc374 2928 -656 R0
SYMATTR InstName U5
SYMBOL ZZZ\\LOGIC\\74HC\\74hc374 2928 -224 R0
SYMATTR InstName U6
TEXT -418 456 Left 2 !.tran 10m
TEXT -296 736 Left 2 !.param tdgate=10n tdgate2=3*tdgate tripdtgate=1n vhighgate=5v vlowgate=0v
TEXT 176 -88 Left 2 ;write pointer
TEXT 1520 -104 Left 2 ;read pointer
