Version 4
SHEET 1 1160 1380
WIRE -784 -288 -1008 -288
WIRE -560 -288 -784 -288
WIRE -336 -288 -560 -288
WIRE -288 -288 -336 -288
WIRE -160 -288 -208 -288
WIRE -64 -288 -160 -288
WIRE 144 -288 32 -288
WIRE 336 -288 144 -288
WIRE 672 -288 336 -288
WIRE 672 -240 672 -288
WIRE 16 -176 16 -240
WIRE 672 -128 672 -176
WIRE -1008 -80 -1008 -288
WIRE -336 16 -336 -288
WIRE -160 16 -160 -288
WIRE 16 16 16 -96
WIRE 144 16 144 -288
WIRE -560 96 -560 -288
WIRE -416 96 -560 96
WIRE -1008 128 -1008 0
WIRE -560 128 -560 96
WIRE 336 128 336 -288
WIRE -560 224 -560 208
WIRE -416 224 -560 224
WIRE -560 240 -560 224
WIRE 16 320 16 288
WIRE -560 336 -560 320
WIRE -224 416 -224 288
WIRE 16 416 16 384
WIRE -784 704 -784 -288
WIRE 640 704 -784 704
WIRE 880 704 640 704
WIRE 640 736 640 704
WIRE 640 864 640 816
WIRE 800 864 640 864
WIRE 880 880 880 704
WIRE 640 896 640 864
WIRE 800 960 800 864
WIRE 640 1008 640 976
WIRE 736 1008 640 1008
WIRE 640 1040 640 1008
WIRE 800 1072 800 1056
WIRE 816 1072 800 1072
WIRE 880 1072 880 944
WIRE 880 1072 816 1072
WIRE 912 1072 880 1072
WIRE 1008 1072 912 1072
WIRE 1088 1072 1008 1072
WIRE 816 1104 816 1072
WIRE 912 1104 912 1072
WIRE 640 1152 640 1104
WIRE 816 1200 816 1184
WIRE 912 1200 912 1168
FLAG 672 -128 0
FLAG -1008 128 0
FLAG 16 416 0
FLAG -224 416 0
FLAG -560 336 0
FLAG 640 1152 0
FLAG 912 1200 0
FLAG 816 1200 0
FLAG 1008 1072 V_AUX
SYMBOL cap 656 -240 R0
SYMATTR InstName C1
SYMATTR Value 100µ
SYMBOL voltage -1008 -96 R0
WINDOW 123 0 0 Left 0
WINDOW 39 0 0 Left 0
SYMATTR InstName V1
SYMATTR Value PWL(0 0 100u 12)
SYMBOL nmos -64 -240 R270
SYMATTR InstName M1
SYMATTR Value BSB012N03MX3
SYMBOL res 0 -192 R0
SYMATTR InstName R1
SYMATTR Value 10
SYMBOL res -192 -304 R90
WINDOW 0 0 56 VBottom 2
WINDOW 3 32 56 VTop 2
SYMATTR InstName R2
SYMATTR Value 20m
SYMBOL cap 0 320 R0
SYMATTR InstName C2
SYMATTR Value 0.1µ
SYMBOL res -576 112 R0
SYMATTR InstName R3
SYMATTR Value 383k
SYMBOL res -576 224 R0
SYMATTR InstName R4
SYMATTR Value 100k
SYMBOL npn 736 960 R0
SYMATTR InstName Q1
SYMATTR Value 2N3904
SYMBOL res 624 880 R0
SYMATTR InstName R7
SYMATTR Value 2.2k
SYMBOL zener 656 1104 R180
WINDOW 0 24 64 Left 2
WINDOW 3 24 0 Left 2
SYMATTR InstName D1
SYMATTR Value BZX84C6V2L
SYMBOL cap 896 1104 R0
SYMATTR InstName C3
SYMATTR Value 10µ
SYMBOL res 800 1088 R0
SYMATTR InstName R8
SYMATTR Value 10k
SYMBOL res 624 720 R0
SYMATTR InstName R10
SYMATTR Value 220
SYMBOL diode 864 944 M180
WINDOW 0 24 64 Left 2
WINDOW 3 24 0 Left 2
SYMATTR InstName D2
SYMATTR Value 1N4148
SYMBOL PowerProducts\\LT4256-3 992 176 R0
SYMATTR InstName U2
TEXT -1042 216 Left 2 !.tran 5m
